<routes>

            <vType accel="1.0" decel="4.5" id="standard_car" length="5.0" minGap="2.5" maxSpeed="25" sigma="0.5" />
            <vType accel="1.0" decel="4.5" id="bus" length="5.0" minGap="2.5" maxSpeed="25" sigma="0.5" guiShape="bus/coach" />
            <vType vClass="truck" accel="1.0" decel="4.5" id="truck" length="5.0" minGap="2.5" maxSpeed="25" sigma="0.5" guiShape="truck" />
            <vType vClass="emergency" id="rescue" guiShape="emergency" >
              <param key="has.bluelight.device" value="true"/>
            </vType>
         <!--            <type id="truck" priority="3" numLanes="3" speed="38.89">-->
<!--               <restriction vClass="truck" speed="27.89"/>-->
<!--            </type>-->
<!--            <vType id="rescue" vClass="emergency" speedFactor="1.5">-->
<!--               <param key="has.bluelight.device" value="true"/>-->
<!--            </vType>-->

            <route id="W_N" edges="W2TL TL2N"/>
            <route id="W_E" edges="W2TL TL2E"/>
            <route id="N_E" edges="N2TLT TL2E"/>
            <route id="N_S" edges="N2TL TL2S"/>
            <route id="E_W" edges="E2TL TL2W"/>
            <route id="E_S" edges="E2TL TL2S"/>
            <route id="S_W" edges="S2TLT TL2W"/>
            <route id="S_N" edges="S2TL TL2N"/>
    <vehicle id="S_N_0" type="bus" route="S_N" depart="66.0" departLane="random" departSpeed="10" />
    <vehicle id="E_W_1" type="standard_car" route="E_W" depart="78.0" departLane="random" departSpeed="10" />
    <vehicle id="W_E_2" type="standard_car" route="W_E" depart="123.0" departLane="random" departSpeed="10" />
    <vehicle id="W_E_3" type="standard_car" route="W_E" depart="124.0" departLane="random" departSpeed="10" />
    <vehicle id="E_W_4" type="standard_car" route="E_W" depart="132.0" departLane="random" departSpeed="10" />
    <vehicle id="E_W_5" type="standard_car" route="E_W" depart="142.0" departLane="random" departSpeed="10" />
    <vehicle id="E_S_6" type="standard_car" route="E_S" depart="145.0" departLane="random" departSpeed="10" />
    <vehicle id="S_N_7" type="standard_car" route="S_N" depart="146.0" departLane="random" departSpeed="10" />
    <vehicle id="N_S_8" type="standard_car" route="N_S" depart="185.0" departLane="random" departSpeed="10" />
    <vehicle id="S_N_9" type="truck" route="S_N" depart="186.0" departLane="random" departSpeed="10" />
    <vehicle id="N_S_10" type="rescue" route="N_S" depart="188.0" departLane="random" departSpeed="10" />
    <vehicle id="N_E_11" type="standard_car" route="N_E" depart="189.0" departLane="random" departSpeed="10" />
    <vehicle id="W_E_12" type="standard_car" route="W_E" depart="189.0" departLane="random" departSpeed="10" />
    <vehicle id="S_N_13" type="rescue" route="S_N" depart="202.0" departLane="random" departSpeed="10" />
    <vehicle id="W_N_14" type="standard_car" route="W_N" depart="212.0" departLane="random" departSpeed="5" />
    <vehicle id="S_N_15" type="standard_car" route="S_N" depart="212.0" departLane="random" departSpeed="10" />
    <vehicle id="W_N_16" type="standard_car" route="W_N" depart="222.0" departLane="random" departSpeed="5" />
    <vehicle id="W_N_17" type="standard_car" route="W_N" depart="243.0" departLane="random" departSpeed="5" />
    <vehicle id="W_E_18" type="standard_car" route="W_E" depart="243.0" departLane="random" departSpeed="10" />
    <vehicle id="W_E_19" type="bus" route="W_E" depart="247.0" departLane="random" departSpeed="10" />
    <vehicle id="N_E_20" type="standard_car" route="N_E" depart="250.0" departLane="random" departSpeed="10" />
    <vehicle id="E_W_21" type="standard_car" route="E_W" depart="267.0" departLane="random" departSpeed="10" />
    <vehicle id="W_E_22" type="truck" route="W_E" depart="273.0" departLane="random" departSpeed="10" />
    <vehicle id="S_N_23" type="bus" route="S_N" depart="277.0" departLane="random" departSpeed="10" />
    <vehicle id="E_W_24" type="standard_car" route="E_W" depart="289.0" departLane="random" departSpeed="10" />
    <vehicle id="N_S_25" type="standard_car" route="N_S" depart="290.0" departLane="random" departSpeed="10" />
    <vehicle id="N_S_26" type="standard_car" route="N_S" depart="292.0" departLane="random" departSpeed="10" />
    <vehicle id="W_N_27" type="standard_car" route="W_N" depart="294.0" departLane="random" departSpeed="5" />
    <vehicle id="N_S_28" type="standard_car" route="N_S" depart="303.0" departLane="random" departSpeed="10" />
    <vehicle id="W_E_29" type="standard_car" route="W_E" depart="308.0" departLane="random" departSpeed="10" />
    <vehicle id="E_S_30" type="standard_car" route="E_S" depart="313.0" departLane="random" departSpeed="10" />
    <vehicle id="E_W_31" type="standard_car" route="E_W" depart="318.0" departLane="random" departSpeed="10" />
    <vehicle id="E_S_32" type="standard_car" route="E_S" depart="322.0" departLane="random" departSpeed="10" />
    <vehicle id="S_N_33" type="truck" route="S_N" depart="322.0" departLane="random" departSpeed="10" />
    <vehicle id="E_W_34" type="bus" route="E_W" depart="339.0" departLane="random" departSpeed="10" />
    <vehicle id="E_W_35" type="standard_car" route="E_W" depart="342.0" departLane="random" departSpeed="10" />
    <vehicle id="N_S_36" type="standard_car" route="N_S" depart="344.0" departLane="random" departSpeed="10" />
    <vehicle id="S_N_37" type="standard_car" route="S_N" depart="344.0" departLane="random" departSpeed="10" />
    <vehicle id="W_N_38" type="standard_car" route="W_N" depart="352.0" departLane="random" departSpeed="5" />
    <vehicle id="E_W_39" type="standard_car" route="E_W" depart="353.0" departLane="random" departSpeed="10" />
    <vehicle id="W_E_40" type="standard_car" route="W_E" depart="356.0" departLane="random" departSpeed="10" />
    <vehicle id="N_S_41" type="standard_car" route="N_S" depart="364.0" departLane="random" departSpeed="10" />
    <vehicle id="S_N_42" type="standard_car" route="S_N" depart="364.0" departLane="random" departSpeed="10" />
    <vehicle id="W_E_43" type="bus" route="W_E" depart="367.0" departLane="random" departSpeed="10" />
    <vehicle id="S_N_44" type="standard_car" route="S_N" depart="370.0" departLane="random" departSpeed="10" />
    <vehicle id="E_W_45" type="rescue" route="E_W" depart="373.0" departLane="random" departSpeed="10" />
    <vehicle id="N_S_46" type="standard_car" route="N_S" depart="381.0" departLane="random" departSpeed="10" />
    <vehicle id="S_N_47" type="standard_car" route="S_N" depart="385.0" departLane="random" departSpeed="10" />
    <vehicle id="E_S_48" type="standard_car" route="E_S" depart="387.0" departLane="random" departSpeed="10" />
    <vehicle id="W_E_49" type="standard_car" route="W_E" depart="393.0" departLane="random" departSpeed="10" />
    <vehicle id="N_E_50" type="standard_car" route="N_E" depart="400.0" departLane="random" departSpeed="10" />
    <vehicle id="E_W_51" type="standard_car" route="E_W" depart="402.0" departLane="random" departSpeed="10" />
    <vehicle id="N_S_52" type="standard_car" route="N_S" depart="402.0" departLane="random" departSpeed="10" />
    <vehicle id="N_E_53" type="standard_car" route="N_E" depart="404.0" departLane="random" departSpeed="10" />
    <vehicle id="E_S_54" type="standard_car" route="E_S" depart="406.0" departLane="random" departSpeed="10" />
    <vehicle id="W_N_55" type="standard_car" route="W_N" depart="411.0" departLane="random" departSpeed="5" />
    <vehicle id="S_N_56" type="standard_car" route="S_N" depart="413.0" departLane="random" departSpeed="10" />
    <vehicle id="S_N_57" type="rescue" route="S_N" depart="417.0" departLane="random" departSpeed="10" />
    <vehicle id="W_E_58" type="bus" route="W_E" depart="420.0" departLane="random" departSpeed="10" />
    <vehicle id="E_W_59" type="rescue" route="E_W" depart="420.0" departLane="random" departSpeed="10" />
    <vehicle id="W_E_60" type="standard_car" route="W_E" depart="420.0" departLane="random" departSpeed="10" />
    <vehicle id="N_E_61" type="standard_car" route="N_E" depart="424.0" departLane="random" departSpeed="10" />
    <vehicle id="S_N_62" type="bus" route="S_N" depart="433.0" departLane="random" departSpeed="10" />
    <vehicle id="N_S_63" type="standard_car" route="N_S" depart="433.0" departLane="random" departSpeed="10" />
    <vehicle id="E_W_64" type="standard_car" route="E_W" depart="437.0" departLane="random" departSpeed="10" />
    <vehicle id="E_S_65" type="standard_car" route="E_S" depart="444.0" departLane="random" departSpeed="10" />
    <vehicle id="N_S_66" type="bus" route="N_S" depart="444.0" departLane="random" departSpeed="10" />
    <vehicle id="W_E_67" type="standard_car" route="W_E" depart="446.0" departLane="random" departSpeed="10" />
    <vehicle id="W_E_68" type="standard_car" route="W_E" depart="449.0" departLane="random" departSpeed="10" />
    <vehicle id="E_S_69" type="standard_car" route="E_S" depart="456.0" departLane="random" departSpeed="10" />
    <vehicle id="S_N_70" type="standard_car" route="S_N" depart="457.0" departLane="random" departSpeed="10" />
    <vehicle id="E_W_71" type="bus" route="E_W" depart="461.0" departLane="random" departSpeed="10" />
    <vehicle id="S_N_72" type="rescue" route="S_N" depart="461.0" departLane="random" departSpeed="10" />
    <vehicle id="W_N_73" type="standard_car" route="W_N" depart="464.0" departLane="random" departSpeed="5" />
    <vehicle id="E_W_74" type="standard_car" route="E_W" depart="471.0" departLane="random" departSpeed="10" />
    <vehicle id="S_N_75" type="standard_car" route="S_N" depart="471.0" departLane="random" departSpeed="10" />
    <vehicle id="E_W_76" type="standard_car" route="E_W" depart="472.0" departLane="random" departSpeed="10" />
    <vehicle id="N_E_77" type="standard_car" route="N_E" depart="473.0" departLane="random" departSpeed="10" />
    <vehicle id="E_W_78" type="standard_car" route="E_W" depart="483.0" departLane="random" departSpeed="10" />
    <vehicle id="W_N_79" type="standard_car" route="W_N" depart="485.0" departLane="random" departSpeed="5" />
    <vehicle id="W_E_80" type="bus" route="W_E" depart="490.0" departLane="random" departSpeed="10" />
    <vehicle id="W_N_81" type="standard_car" route="W_N" depart="496.0" departLane="random" departSpeed="5" />
    <vehicle id="S_N_82" type="truck" route="S_N" depart="499.0" departLane="random" departSpeed="10" />
    <vehicle id="E_W_83" type="standard_car" route="E_W" depart="502.0" departLane="random" departSpeed="10" />
    <vehicle id="E_S_84" type="standard_car" route="E_S" depart="504.0" departLane="random" departSpeed="10" />
    <vehicle id="E_W_85" type="standard_car" route="E_W" depart="504.0" departLane="random" departSpeed="10" />
    <vehicle id="W_E_86" type="standard_car" route="W_E" depart="505.0" departLane="random" departSpeed="10" />
    <vehicle id="E_W_87" type="standard_car" route="E_W" depart="506.0" departLane="random" departSpeed="10" />
    <vehicle id="E_S_88" type="standard_car" route="E_S" depart="507.0" departLane="random" departSpeed="10" />
    <vehicle id="E_W_89" type="standard_car" route="E_W" depart="508.0" departLane="random" departSpeed="10" />
    <vehicle id="W_E_90" type="standard_car" route="W_E" depart="509.0" departLane="random" departSpeed="10" />
    <vehicle id="E_W_91" type="standard_car" route="E_W" depart="515.0" departLane="random" departSpeed="10" />
    <vehicle id="W_N_92" type="standard_car" route="W_N" depart="521.0" departLane="random" departSpeed="5" />
    <vehicle id="N_E_93" type="standard_car" route="N_E" depart="523.0" departLane="random" departSpeed="10" />
    <vehicle id="W_E_94" type="truck" route="W_E" depart="523.0" departLane="random" departSpeed="10" />
    <vehicle id="S_N_95" type="standard_car" route="S_N" depart="523.0" departLane="random" departSpeed="10" />
    <vehicle id="N_S_96" type="bus" route="N_S" depart="527.0" departLane="random" departSpeed="10" />
    <vehicle id="E_W_97" type="truck" route="E_W" depart="527.0" departLane="random" departSpeed="10" />
    <vehicle id="S_N_98" type="standard_car" route="S_N" depart="532.0" departLane="random" departSpeed="10" />
    <vehicle id="N_E_99" type="standard_car" route="N_E" depart="536.0" departLane="random" departSpeed="10" />
    <vehicle id="N_S_100" type="standard_car" route="N_S" depart="540.0" departLane="random" departSpeed="10" />
    <vehicle id="N_S_101" type="standard_car" route="N_S" depart="541.0" departLane="random" departSpeed="10" />
    <vehicle id="W_E_102" type="standard_car" route="W_E" depart="544.0" departLane="random" departSpeed="10" />
    <vehicle id="W_N_103" type="standard_car" route="W_N" depart="548.0" departLane="random" departSpeed="5" />
    <vehicle id="S_N_104" type="standard_car" route="S_N" depart="551.0" departLane="random" departSpeed="10" />
    <vehicle id="N_S_105" type="standard_car" route="N_S" depart="559.0" departLane="random" departSpeed="10" />
    <vehicle id="W_N_106" type="standard_car" route="W_N" depart="561.0" departLane="random" departSpeed="5" />
    <vehicle id="E_W_107" type="truck" route="E_W" depart="561.0" departLane="random" departSpeed="10" />
    <vehicle id="N_S_108" type="standard_car" route="N_S" depart="562.0" departLane="random" departSpeed="10" />
    <vehicle id="S_N_109" type="bus" route="S_N" depart="562.0" departLane="random" departSpeed="10" />
    <vehicle id="N_S_110" type="standard_car" route="N_S" depart="565.0" departLane="random" departSpeed="10" />
    <vehicle id="W_N_111" type="standard_car" route="W_N" depart="567.0" departLane="random" departSpeed="5" />
    <vehicle id="S_N_112" type="standard_car" route="S_N" depart="568.0" departLane="random" departSpeed="10" />
    <vehicle id="E_W_113" type="standard_car" route="E_W" depart="570.0" departLane="random" departSpeed="10" />
    <vehicle id="E_W_114" type="standard_car" route="E_W" depart="571.0" departLane="random" departSpeed="10" />
    <vehicle id="S_N_115" type="bus" route="S_N" depart="577.0" departLane="random" departSpeed="10" />
    <vehicle id="S_N_116" type="rescue" route="S_N" depart="584.0" departLane="random" departSpeed="10" />
    <vehicle id="E_W_117" type="standard_car" route="E_W" depart="584.0" departLane="random" departSpeed="10" />
    <vehicle id="E_S_118" type="standard_car" route="E_S" depart="590.0" departLane="random" departSpeed="10" />
    <vehicle id="N_E_119" type="standard_car" route="N_E" depart="592.0" departLane="random" departSpeed="10" />
    <vehicle id="E_W_120" type="standard_car" route="E_W" depart="593.0" departLane="random" departSpeed="10" />
    <vehicle id="W_N_121" type="standard_car" route="W_N" depart="593.0" departLane="random" departSpeed="5" />
    <vehicle id="N_S_122" type="standard_car" route="N_S" depart="594.0" departLane="random" departSpeed="10" />
    <vehicle id="S_N_123" type="standard_car" route="S_N" depart="594.0" departLane="random" departSpeed="10" />
    <vehicle id="W_N_124" type="standard_car" route="W_N" depart="596.0" departLane="random" departSpeed="5" />
    <vehicle id="N_S_125" type="standard_car" route="N_S" depart="596.0" departLane="random" departSpeed="10" />
    <vehicle id="E_S_126" type="standard_car" route="E_S" depart="599.0" departLane="random" departSpeed="10" />
    <vehicle id="W_E_127" type="standard_car" route="W_E" depart="599.0" departLane="random" departSpeed="10" />
    <vehicle id="E_W_128" type="bus" route="E_W" depart="606.0" departLane="random" departSpeed="10" />
    <vehicle id="W_E_129" type="standard_car" route="W_E" depart="608.0" departLane="random" departSpeed="10" />
    <vehicle id="S_N_130" type="standard_car" route="S_N" depart="609.0" departLane="random" departSpeed="10" />
    <vehicle id="N_S_131" type="rescue" route="N_S" depart="612.0" departLane="random" departSpeed="10" />
    <vehicle id="S_N_132" type="standard_car" route="S_N" depart="614.0" departLane="random" departSpeed="10" />
    <vehicle id="S_N_133" type="standard_car" route="S_N" depart="614.0" departLane="random" departSpeed="10" />
    <vehicle id="E_W_134" type="standard_car" route="E_W" depart="618.0" departLane="random" departSpeed="10" />
    <vehicle id="E_W_135" type="standard_car" route="E_W" depart="623.0" departLane="random" departSpeed="10" />
    <vehicle id="N_S_136" type="bus" route="N_S" depart="625.0" departLane="random" departSpeed="10" />
    <vehicle id="E_S_137" type="standard_car" route="E_S" depart="630.0" departLane="random" departSpeed="10" />
    <vehicle id="S_N_138" type="bus" route="S_N" depart="632.0" departLane="random" departSpeed="10" />
    <vehicle id="N_E_139" type="standard_car" route="N_E" depart="634.0" departLane="random" departSpeed="10" />
    <vehicle id="W_N_140" type="standard_car" route="W_N" depart="635.0" departLane="random" departSpeed="5" />
    <vehicle id="W_E_141" type="bus" route="W_E" depart="636.0" departLane="random" departSpeed="10" />
    <vehicle id="W_E_142" type="rescue" route="W_E" depart="640.0" departLane="random" departSpeed="10" />
    <vehicle id="S_N_143" type="standard_car" route="S_N" depart="643.0" departLane="random" departSpeed="10" />
    <vehicle id="W_N_144" type="standard_car" route="W_N" depart="645.0" departLane="random" departSpeed="5" />
    <vehicle id="S_N_145" type="bus" route="S_N" depart="645.0" departLane="random" departSpeed="10" />
    <vehicle id="W_E_146" type="standard_car" route="W_E" depart="646.0" departLane="random" departSpeed="10" />
    <vehicle id="N_S_147" type="bus" route="N_S" depart="653.0" departLane="random" departSpeed="10" />
    <vehicle id="W_E_148" type="standard_car" route="W_E" depart="654.0" departLane="random" departSpeed="10" />
    <vehicle id="W_E_149" type="standard_car" route="W_E" depart="654.0" departLane="random" departSpeed="10" />
    <vehicle id="N_S_150" type="standard_car" route="N_S" depart="663.0" departLane="random" departSpeed="10" />
    <vehicle id="N_S_151" type="standard_car" route="N_S" depart="663.0" departLane="random" departSpeed="10" />
    <vehicle id="S_N_152" type="standard_car" route="S_N" depart="664.0" departLane="random" departSpeed="10" />
    <vehicle id="S_N_153" type="truck" route="S_N" depart="664.0" departLane="random" departSpeed="10" />
    <vehicle id="W_E_154" type="bus" route="W_E" depart="669.0" departLane="random" departSpeed="10" />
    <vehicle id="E_W_155" type="standard_car" route="E_W" depart="670.0" departLane="random" departSpeed="10" />
    <vehicle id="N_E_156" type="standard_car" route="N_E" depart="673.0" departLane="random" departSpeed="10" />
    <vehicle id="W_E_157" type="bus" route="W_E" depart="683.0" departLane="random" departSpeed="10" />
    <vehicle id="N_S_158" type="standard_car" route="N_S" depart="685.0" departLane="random" departSpeed="10" />
    <vehicle id="N_E_159" type="standard_car" route="N_E" depart="685.0" departLane="random" departSpeed="10" />
    <vehicle id="E_W_160" type="standard_car" route="E_W" depart="686.0" departLane="random" departSpeed="10" />
    <vehicle id="W_E_161" type="standard_car" route="W_E" depart="686.0" departLane="random" departSpeed="10" />
    <vehicle id="E_W_162" type="standard_car" route="E_W" depart="690.0" departLane="random" departSpeed="10" />
    <vehicle id="E_W_163" type="standard_car" route="E_W" depart="693.0" departLane="random" departSpeed="10" />
    <vehicle id="W_N_164" type="standard_car" route="W_N" depart="694.0" departLane="random" departSpeed="5" />
    <vehicle id="S_N_165" type="standard_car" route="S_N" depart="697.0" departLane="random" departSpeed="10" />
    <vehicle id="W_N_166" type="standard_car" route="W_N" depart="698.0" departLane="random" departSpeed="5" />
    <vehicle id="N_S_167" type="standard_car" route="N_S" depart="699.0" departLane="random" departSpeed="10" />
    <vehicle id="W_E_168" type="standard_car" route="W_E" depart="700.0" departLane="random" departSpeed="10" />
    <vehicle id="W_E_169" type="standard_car" route="W_E" depart="703.0" departLane="random" departSpeed="10" />
    <vehicle id="E_S_170" type="standard_car" route="E_S" depart="704.0" departLane="random" departSpeed="10" />
    <vehicle id="W_N_171" type="standard_car" route="W_N" depart="715.0" departLane="random" departSpeed="5" />
    <vehicle id="W_E_172" type="standard_car" route="W_E" depart="718.0" departLane="random" departSpeed="10" />
    <vehicle id="W_E_173" type="standard_car" route="W_E" depart="722.0" departLane="random" departSpeed="10" />
    <vehicle id="S_N_174" type="standard_car" route="S_N" depart="723.0" departLane="random" departSpeed="10" />
    <vehicle id="S_N_175" type="truck" route="S_N" depart="723.0" departLane="random" departSpeed="10" />
    <vehicle id="W_E_176" type="standard_car" route="W_E" depart="723.0" departLane="random" departSpeed="10" />
    <vehicle id="E_W_177" type="standard_car" route="E_W" depart="726.0" departLane="random" departSpeed="10" />
    <vehicle id="E_W_178" type="rescue" route="E_W" depart="728.0" departLane="random" departSpeed="10" />
    <vehicle id="W_E_179" type="truck" route="W_E" depart="731.0" departLane="random" departSpeed="10" />
    <vehicle id="W_E_180" type="standard_car" route="W_E" depart="733.0" departLane="random" departSpeed="10" />
    <vehicle id="N_S_181" type="standard_car" route="N_S" depart="734.0" departLane="random" departSpeed="10" />
    <vehicle id="E_W_182" type="standard_car" route="E_W" depart="735.0" departLane="random" departSpeed="10" />
    <vehicle id="S_N_183" type="bus" route="S_N" depart="741.0" departLane="random" departSpeed="10" />
    <vehicle id="W_N_184" type="standard_car" route="W_N" depart="744.0" departLane="random" departSpeed="5" />
    <vehicle id="E_W_185" type="bus" route="E_W" depart="747.0" departLane="random" departSpeed="10" />
    <vehicle id="N_S_186" type="standard_car" route="N_S" depart="751.0" departLane="random" departSpeed="10" />
    <vehicle id="N_S_187" type="standard_car" route="N_S" depart="751.0" departLane="random" departSpeed="10" />
    <vehicle id="N_S_188" type="standard_car" route="N_S" depart="754.0" departLane="random" departSpeed="10" />
    <vehicle id="N_S_189" type="standard_car" route="N_S" depart="755.0" departLane="random" departSpeed="10" />
    <vehicle id="E_S_190" type="standard_car" route="E_S" depart="755.0" departLane="random" departSpeed="10" />
    <vehicle id="W_N_191" type="standard_car" route="W_N" depart="761.0" departLane="random" departSpeed="5" />
    <vehicle id="W_N_192" type="standard_car" route="W_N" depart="761.0" departLane="random" departSpeed="5" />
    <vehicle id="W_N_193" type="standard_car" route="W_N" depart="762.0" departLane="random" departSpeed="5" />
    <vehicle id="W_E_194" type="standard_car" route="W_E" depart="763.0" departLane="random" departSpeed="10" />
    <vehicle id="E_W_195" type="standard_car" route="E_W" depart="767.0" departLane="random" departSpeed="10" />
    <vehicle id="E_W_196" type="standard_car" route="E_W" depart="772.0" departLane="random" departSpeed="10" />
    <vehicle id="N_S_197" type="standard_car" route="N_S" depart="782.0" departLane="random" departSpeed="10" />
    <vehicle id="W_N_198" type="standard_car" route="W_N" depart="782.0" departLane="random" departSpeed="5" />
    <vehicle id="E_S_199" type="standard_car" route="E_S" depart="787.0" departLane="random" departSpeed="10" />
    <vehicle id="N_S_200" type="standard_car" route="N_S" depart="788.0" departLane="random" departSpeed="10" />
    <vehicle id="W_E_201" type="rescue" route="W_E" depart="789.0" departLane="random" departSpeed="10" />
    <vehicle id="N_S_202" type="standard_car" route="N_S" depart="789.0" departLane="random" departSpeed="10" />
    <vehicle id="W_E_203" type="standard_car" route="W_E" depart="798.0" departLane="random" departSpeed="10" />
    <vehicle id="W_E_204" type="standard_car" route="W_E" depart="800.0" departLane="random" departSpeed="10" />
    <vehicle id="W_E_205" type="standard_car" route="W_E" depart="802.0" departLane="random" departSpeed="10" />
    <vehicle id="S_N_206" type="standard_car" route="S_N" depart="803.0" departLane="random" departSpeed="10" />
    <vehicle id="S_N_207" type="standard_car" route="S_N" depart="803.0" departLane="random" departSpeed="10" />
    <vehicle id="S_N_208" type="bus" route="S_N" depart="810.0" departLane="random" departSpeed="10" />
    <vehicle id="N_S_209" type="standard_car" route="N_S" depart="814.0" departLane="random" departSpeed="10" />
    <vehicle id="W_N_210" type="standard_car" route="W_N" depart="815.0" departLane="random" departSpeed="5" />
    <vehicle id="N_S_211" type="standard_car" route="N_S" depart="815.0" departLane="random" departSpeed="10" />
    <vehicle id="S_N_212" type="standard_car" route="S_N" depart="818.0" departLane="random" departSpeed="10" />
    <vehicle id="E_S_213" type="standard_car" route="E_S" depart="821.0" departLane="random" departSpeed="10" />
    <vehicle id="E_W_214" type="standard_car" route="E_W" depart="822.0" departLane="random" departSpeed="10" />
    <vehicle id="N_S_215" type="standard_car" route="N_S" depart="827.0" departLane="random" departSpeed="10" />
    <vehicle id="E_W_216" type="standard_car" route="E_W" depart="830.0" departLane="random" departSpeed="10" />
    <vehicle id="W_N_217" type="standard_car" route="W_N" depart="830.0" departLane="random" departSpeed="5" />
    <vehicle id="W_N_218" type="standard_car" route="W_N" depart="833.0" departLane="random" departSpeed="5" />
    <vehicle id="N_S_219" type="standard_car" route="N_S" depart="833.0" departLane="random" departSpeed="10" />
    <vehicle id="W_E_220" type="truck" route="W_E" depart="836.0" departLane="random" departSpeed="10" />
    <vehicle id="S_N_221" type="rescue" route="S_N" depart="836.0" departLane="random" departSpeed="10" />
    <vehicle id="S_N_222" type="truck" route="S_N" depart="836.0" departLane="random" departSpeed="10" />
    <vehicle id="E_S_223" type="standard_car" route="E_S" depart="838.0" departLane="random" departSpeed="10" />
    <vehicle id="N_E_224" type="standard_car" route="N_E" depart="840.0" departLane="random" departSpeed="10" />
    <vehicle id="W_E_225" type="bus" route="W_E" depart="843.0" departLane="random" departSpeed="10" />
    <vehicle id="N_E_226" type="standard_car" route="N_E" depart="844.0" departLane="random" departSpeed="10" />
    <vehicle id="N_S_227" type="standard_car" route="N_S" depart="845.0" departLane="random" departSpeed="10" />
    <vehicle id="N_E_228" type="standard_car" route="N_E" depart="846.0" departLane="random" departSpeed="10" />
    <vehicle id="W_E_229" type="standard_car" route="W_E" depart="846.0" departLane="random" departSpeed="10" />
    <vehicle id="W_E_230" type="truck" route="W_E" depart="857.0" departLane="random" departSpeed="10" />
    <vehicle id="E_W_231" type="truck" route="E_W" depart="858.0" departLane="random" departSpeed="10" />
    <vehicle id="N_S_232" type="bus" route="N_S" depart="865.0" departLane="random" departSpeed="10" />
    <vehicle id="E_W_233" type="standard_car" route="E_W" depart="867.0" departLane="random" departSpeed="10" />
    <vehicle id="S_N_234" type="truck" route="S_N" depart="868.0" departLane="random" departSpeed="10" />
    <vehicle id="N_S_235" type="standard_car" route="N_S" depart="871.0" departLane="random" departSpeed="10" />
    <vehicle id="W_E_236" type="standard_car" route="W_E" depart="875.0" departLane="random" departSpeed="10" />
    <vehicle id="N_E_237" type="standard_car" route="N_E" depart="878.0" departLane="random" departSpeed="10" />
    <vehicle id="E_W_238" type="standard_car" route="E_W" depart="879.0" departLane="random" departSpeed="10" />
    <vehicle id="E_W_239" type="standard_car" route="E_W" depart="881.0" departLane="random" departSpeed="10" />
    <vehicle id="E_W_240" type="bus" route="E_W" depart="885.0" departLane="random" departSpeed="10" />
    <vehicle id="S_N_241" type="standard_car" route="S_N" depart="887.0" departLane="random" departSpeed="10" />
    <vehicle id="S_N_242" type="standard_car" route="S_N" depart="890.0" departLane="random" departSpeed="10" />
    <vehicle id="W_E_243" type="standard_car" route="W_E" depart="890.0" departLane="random" departSpeed="10" />
    <vehicle id="S_N_244" type="standard_car" route="S_N" depart="894.0" departLane="random" departSpeed="10" />
    <vehicle id="E_S_245" type="standard_car" route="E_S" depart="897.0" departLane="random" departSpeed="10" />
    <vehicle id="N_S_246" type="bus" route="N_S" depart="898.0" departLane="random" departSpeed="10" />
    <vehicle id="S_N_247" type="standard_car" route="S_N" depart="902.0" departLane="random" departSpeed="10" />
    <vehicle id="N_E_248" type="standard_car" route="N_E" depart="905.0" departLane="random" departSpeed="10" />
    <vehicle id="W_E_249" type="truck" route="W_E" depart="906.0" departLane="random" departSpeed="10" />
    <vehicle id="N_S_250" type="standard_car" route="N_S" depart="907.0" departLane="random" departSpeed="10" />
    <vehicle id="S_N_251" type="standard_car" route="S_N" depart="911.0" departLane="random" departSpeed="10" />
    <vehicle id="E_S_252" type="standard_car" route="E_S" depart="915.0" departLane="random" departSpeed="10" />
    <vehicle id="N_E_253" type="standard_car" route="N_E" depart="915.0" departLane="random" departSpeed="10" />
    <vehicle id="N_S_254" type="rescue" route="N_S" depart="918.0" departLane="random" departSpeed="10" />
    <vehicle id="W_N_255" type="standard_car" route="W_N" depart="918.0" departLane="random" departSpeed="5" />
    <vehicle id="E_S_256" type="standard_car" route="E_S" depart="919.0" departLane="random" departSpeed="10" />
    <vehicle id="W_E_257" type="standard_car" route="W_E" depart="925.0" departLane="random" departSpeed="10" />
    <vehicle id="W_E_258" type="standard_car" route="W_E" depart="927.0" departLane="random" departSpeed="10" />