<?xml version="1.0" encoding="UTF-8"?>

<!-- generated on 2023-05-12 11:57:49 by Eclipse SUMO netedit Version 1.14.1
<configuration xmlns:xsi="http://www.w3.org/2001/XMLSchema-instance" xsi:noNamespaceSchemaLocation="http://sumo.dlr.de/xsd/netconvertConfiguration.xsd">

    <input>
        <sumo-net-file value="C:\Users\alsah\PycharmProjects\Deep-QLearning-Agent-for-Traffic-Signal-Control\TLCS\intersection\riffa_sanad.net.xml"/>
    </input>

    <output>
        <output-file value="C:\Users\alsah\PycharmProjects\Deep-QLearning-Agent-for-Traffic-Signal-Control\TLCS\intersection\riffa_sanad.net.xml"/>
        <output.street-names value="true"/>
    </output>

    <processing>
        <geometry.min-radius.fix.railways value="false"/>
        <geometry.max-grade.fix value="false"/>
        <offset.disable-normalization value="true"/>
        <lefthand value="false"/>
    </processing>

    <junctions>
        <no-turnarounds value="true"/>
        <junctions.corner-detail value="5"/>
        <junctions.limit-turn-speed value="5.5"/>
        <rectangular-lane-cut value="false"/>
    </junctions>

    <pedestrian>
        <walkingareas value="false"/>
    </pedestrian>

</configuration>
-->

<net version="1.9" junctionCornerDetail="5" limitTurnSpeed="5.50" xmlns:xsi="http://www.w3.org/2001/XMLSchema-instance" xsi:noNamespaceSchemaLocation="http://sumo.dlr.de/xsd/net_file.xsd">

    <location netOffset="-457341.97,-2890286.92" convBoundary="0.00,0.00,1330.35,2224.92" origBoundary="50.573254,26.131269,50.586547,26.151322" projParameter="+proj=utm +zone=39 +ellps=WGS84 +datum=WGS84 +units=m +no_defs"/>

    <type id="highway.bridleway" priority="1" numLanes="1" speed="2.78" allow="pedestrian" oneway="1" width="2.00"/>
    <type id="highway.bus_guideway" priority="1" numLanes="1" speed="27.78" allow="bus" oneway="1"/>
    <type id="highway.cycleway" priority="1" numLanes="1" speed="5.56" allow="bicycle" oneway="0" width="1.00"/>
    <type id="highway.footway" priority="1" numLanes="1" speed="2.78" allow="pedestrian" oneway="1" width="2.00"/>
    <type id="highway.ford" priority="1" numLanes="1" speed="2.78" allow="army" oneway="0"/>
    <type id="highway.living_street" priority="2" numLanes="1" speed="2.78" disallow="tram rail_urban rail rail_electric rail_fast ship" oneway="0"/>
    <type id="highway.motorway" priority="14" numLanes="2" speed="39.44" allow="private emergency authority army vip passenger hov taxi bus coach delivery truck trailer motorcycle evehicle custom1 custom2" oneway="1"/>
    <type id="highway.motorway_link" priority="9" numLanes="1" speed="22.22" allow="private emergency authority army vip passenger hov taxi bus coach delivery truck trailer motorcycle evehicle custom1 custom2" oneway="1"/>
    <type id="highway.path" priority="1" numLanes="1" speed="5.56" allow="pedestrian bicycle" oneway="0" width="2.00"/>
    <type id="highway.pedestrian" priority="1" numLanes="1" speed="2.78" allow="pedestrian" oneway="1" width="2.00"/>
    <type id="highway.primary" priority="12" numLanes="2" speed="27.78" disallow="tram rail_urban rail rail_electric rail_fast ship" oneway="0"/>
    <type id="highway.primary_link" priority="7" numLanes="1" speed="22.22" disallow="tram rail_urban rail rail_electric rail_fast ship" oneway="0"/>
    <type id="highway.raceway" priority="15" numLanes="2" speed="83.33" allow="vip" oneway="0"/>
    <type id="highway.residential" priority="3" numLanes="1" speed="13.89" disallow="tram rail_urban rail rail_electric rail_fast ship" oneway="0"/>
    <type id="highway.secondary" priority="11" numLanes="1" speed="27.78" disallow="tram rail_urban rail rail_electric rail_fast ship" oneway="0"/>
    <type id="highway.secondary_link" priority="6" numLanes="1" speed="22.22" disallow="tram rail_urban rail rail_electric rail_fast ship" oneway="0"/>
    <type id="highway.service" priority="1" numLanes="1" speed="5.56" allow="pedestrian delivery bicycle" oneway="0"/>
    <type id="highway.stairs" priority="1" numLanes="1" speed="1.39" allow="pedestrian" oneway="1" width="2.00"/>
    <type id="highway.step" priority="1" numLanes="1" speed="1.39" allow="pedestrian" oneway="1" width="2.00"/>
    <type id="highway.steps" priority="1" numLanes="1" speed="1.39" allow="pedestrian" oneway="1" width="2.00"/>
    <type id="highway.tertiary" priority="10" numLanes="1" speed="22.22" disallow="tram rail_urban rail rail_electric rail_fast ship" oneway="0"/>
    <type id="highway.tertiary_link" priority="5" numLanes="1" speed="22.22" disallow="tram rail_urban rail rail_electric rail_fast ship" oneway="0"/>
    <type id="highway.track" priority="1" numLanes="1" speed="5.56" allow="pedestrian motorcycle moped bicycle" oneway="0"/>
    <type id="highway.trunk" priority="13" numLanes="2" speed="27.78" disallow="pedestrian bicycle tram rail_urban rail rail_electric rail_fast ship" oneway="0"/>
    <type id="highway.trunk_link" priority="8" numLanes="1" speed="22.22" disallow="pedestrian bicycle tram rail_urban rail rail_electric rail_fast ship" oneway="0"/>
    <type id="highway.unclassified" priority="4" numLanes="1" speed="13.89" disallow="tram rail_urban rail rail_electric rail_fast ship" oneway="0"/>
    <type id="highway.unsurfaced" priority="1" numLanes="1" speed="8.33" disallow="tram rail_urban rail rail_electric rail_fast ship" oneway="0"/>
    <type id="railway.highspeed" priority="21" numLanes="1" speed="69.44" allow="rail_fast" oneway="1"/>
    <type id="railway.light_rail" priority="19" numLanes="1" speed="27.78" allow="rail_urban" oneway="1"/>
    <type id="railway.preserved" priority="16" numLanes="1" speed="27.78" allow="rail" oneway="1"/>
    <type id="railway.rail" priority="20" numLanes="1" speed="44.44" allow="rail" oneway="1"/>
    <type id="railway.subway" priority="18" numLanes="1" speed="27.78" allow="rail_urban" oneway="1"/>
    <type id="railway.tram" priority="17" numLanes="1" speed="13.89" allow="tram" oneway="1"/>

    <edge id=":100222850#0-AddedOffRampNode_0" function="internal">
        <lane id=":100222850#0-AddedOffRampNode_0_0" index="0" disallow="tram rail_urban rail rail_electric rail_fast ship" speed="27.78" length="8.20" shape="557.08,1299.79 558.14,1297.51 558.17,1295.62 558.20,1293.73 559.26,1291.45"/>
        <lane id=":100222850#0-AddedOffRampNode_0_1" index="1" disallow="tram rail_urban rail rail_electric rail_fast ship" speed="27.78" length="8.20" shape="557.08,1299.79 561.84,1293.35"/>
        <lane id=":100222850#0-AddedOffRampNode_0_2" index="2" disallow="tram rail_urban rail rail_electric rail_fast ship" speed="27.78" length="8.20" shape="559.66,1301.69 564.41,1295.25"/>
        <lane id=":100222850#0-AddedOffRampNode_0_3" index="3" disallow="tram rail_urban rail rail_electric rail_fast ship" speed="27.78" length="8.20" shape="562.23,1303.59 566.99,1297.15"/>
    </edge>
    <edge id=":100222856#2-AddedOnRampNode_0" function="internal">
        <lane id=":100222856#2-AddedOnRampNode_0_0" index="0" disallow="tram rail_urban rail rail_electric rail_fast ship" speed="27.78" length="8.01" shape="839.85,924.20 844.54,917.70"/>
        <lane id=":100222856#2-AddedOnRampNode_0_1" index="1" disallow="tram rail_urban rail rail_electric rail_fast ship" speed="27.78" length="8.01" shape="842.46,926.05 847.15,919.55"/>
        <lane id=":100222856#2-AddedOnRampNode_0_2" index="2" disallow="tram rail_urban rail rail_electric rail_fast ship" speed="27.78" length="8.01" shape="845.08,927.90 849.76,921.40"/>
    </edge>
    <edge id=":100364457-AddedOnRampNode_0" function="internal">
        <lane id=":100364457-AddedOnRampNode_0_0" index="0" disallow="tram rail_urban rail rail_electric rail_fast ship" speed="27.78" length="8.00" shape="673.15,1193.63 668.37,1200.04"/>
        <lane id=":100364457-AddedOnRampNode_0_1" index="1" disallow="tram rail_urban rail rail_electric rail_fast ship" speed="27.78" length="8.00" shape="670.59,1191.71 665.81,1198.12"/>
        <lane id=":100364457-AddedOnRampNode_0_2" index="2" disallow="tram rail_urban rail rail_electric rail_fast ship" speed="27.78" length="8.00" shape="668.03,1189.79 663.24,1196.21"/>
    </edge>
    <edge id=":100453006#0-AddedOffRampNode_0" function="internal">
        <lane id=":100453006#0-AddedOffRampNode_0_0" index="0" disallow="tram rail_urban rail rail_electric rail_fast ship" speed="27.78" length="8.27" shape="373.11,885.35 375.56,885.90 377.41,885.53 379.26,885.16 381.71,885.71"/>
        <lane id=":100453006#0-AddedOffRampNode_0_1" index="1" disallow="tram rail_urban rail rail_electric rail_fast ship" speed="27.78" length="8.27" shape="373.11,885.35 380.40,888.63"/>
        <lane id=":100453006#0-AddedOffRampNode_0_2" index="2" disallow="tram rail_urban rail rail_electric rail_fast ship" speed="27.78" length="8.27" shape="371.79,888.27 379.09,891.55"/>
    </edge>
    <edge id=":10262613680_0" function="internal">
        <lane id=":10262613680_0_0" index="0" disallow="tram rail_urban rail rail_electric rail_fast ship" speed="6.74" length="5.81" shape="967.97,1114.69 967.33,1113.34 966.42,1112.29 965.24,1111.52 963.79,1111.05"/>
    </edge>
    <edge id=":10262613680_1" function="internal">
        <lane id=":10262613680_1_0" index="0" disallow="tram rail_urban rail rail_electric rail_fast ship" speed="13.89" length="7.85" shape="971.39,1112.80 963.79,1111.05"/>
        <lane id=":10262613680_1_1" index="1" disallow="tram rail_urban rail rail_electric rail_fast ship" speed="13.89" length="7.85" shape="972.13,1109.68 964.44,1107.92"/>
    </edge>
    <edge id=":10262613683_0" function="internal">
        <lane id=":10262613683_0_0" index="0" disallow="tram rail_urban rail rail_electric rail_fast ship" speed="6.95" length="5.64" shape="978.41,1114.46 977.03,1114.31 975.70,1114.51 974.42,1115.06 973.20,1115.97"/>
    </edge>
    <edge id=":10262613683_1" function="internal">
        <lane id=":10262613683_1_0" index="0" disallow="tram rail_urban rail rail_electric rail_fast ship" speed="13.89" length="7.00" shape="978.41,1114.46 971.59,1112.84"/>
        <lane id=":10262613683_1_1" index="1" disallow="tram rail_urban rail rail_electric rail_fast ship" speed="13.89" length="7.00" shape="979.13,1111.34 972.33,1109.73"/>
    </edge>
    <edge id=":1158379398_0" function="internal">
        <lane id=":1158379398_0_0" index="0" disallow="tram rail_urban rail rail_electric rail_fast ship" speed="27.78" length="25.48" shape="617.75,1215.14 634.31,1195.59"/>
        <lane id=":1158379398_0_1" index="1" disallow="tram rail_urban rail rail_electric rail_fast ship" speed="27.78" length="25.48" shape="620.28,1217.10 636.76,1197.66"/>
        <lane id=":1158379398_0_2" index="2" disallow="tram rail_urban rail rail_electric rail_fast ship" speed="27.78" length="25.48" shape="622.80,1219.06 639.20,1199.73"/>
    </edge>
    <edge id=":1158379398_3" function="internal">
        <lane id=":1158379398_3_0" index="0" disallow="tram rail_urban rail rail_electric rail_fast ship" speed="25.00" length="25.36" shape="622.80,1219.06 627.93,1213.14 632.29,1209.39 636.70,1206.39 641.99,1202.71"/>
        <lane id=":1158379398_3_1" index="1" disallow="tram rail_urban rail rail_electric rail_fast ship" speed="25.00" length="24.50" shape="625.33,1221.02 630.26,1215.34 634.41,1211.78 638.67,1208.90 643.91,1205.27"/>
    </edge>
    <edge id=":1158379453_0" function="internal">
        <lane id=":1158379453_0_0" index="0" disallow="pedestrian tram rail_urban rail rail_electric rail_fast ship" speed="27.78" length="4.05" shape="898.62,903.65 897.77,904.81 897.09,905.53 896.32,906.17 895.21,907.10"/>
        <lane id=":1158379453_0_1" index="1" disallow="pedestrian tram rail_urban rail rail_electric rail_fast ship" speed="27.78" length="4.05" shape="895.98,901.85 895.26,902.81 894.69,903.40 894.04,903.92 893.11,904.68"/>
        <lane id=":1158379453_0_2" index="2" disallow="pedestrian tram rail_urban rail rail_electric rail_fast ship" speed="27.78" length="4.05" shape="893.33,900.06 892.75,900.82 892.28,901.27 891.75,901.67 891.00,902.27"/>
    </edge>
    <edge id=":1158379453_3" function="internal">
        <lane id=":1158379453_3_0" index="0" disallow="pedestrian tram rail_urban rail rail_electric rail_fast ship" speed="9.00" length="6.53" shape="890.68,898.26 889.56,899.82 888.58,900.75 887.37,901.35 885.53,901.87"/>
        <lane id=":1158379453_3_1" index="1" disallow="pedestrian tram rail_urban rail rail_electric rail_fast ship" speed="7.29" length="4.16" shape="888.03,896.47 887.32,897.46 886.70,898.05 885.92,898.43 884.75,898.76"/>
    </edge>
    <edge id=":1158379509_0" function="internal">
        <lane id=":1158379509_0_0" index="0" disallow="pedestrian tram rail_urban rail rail_electric rail_fast ship" speed="27.78" length="0.28" shape="998.44,730.74 998.23,731.16"/>
        <lane id=":1158379509_0_1" index="1" disallow="pedestrian tram rail_urban rail rail_electric rail_fast ship" speed="27.78" length="0.28" shape="995.56,729.35 995.43,729.60"/>
        <lane id=":1158379509_0_2" index="2" disallow="pedestrian tram rail_urban rail rail_electric rail_fast ship" speed="27.78" length="0.28" shape="992.68,727.97 992.63,728.05"/>
    </edge>
    <edge id=":1160256748_0" function="internal">
        <lane id=":1160256748_0_0" index="0" disallow="tram rail_urban rail rail_electric rail_fast ship" speed="13.89" length="8.21" shape="907.72,1088.47 910.12,1088.70 911.80,1088.49 913.48,1088.28 915.88,1088.52"/>
        <lane id=":1160256748_0_1" index="1" disallow="tram rail_urban rail rail_electric rail_fast ship" speed="13.89" length="8.21" shape="907.08,1091.60 909.48,1091.84 911.16,1091.62 912.83,1091.41 915.23,1091.65"/>
    </edge>
    <edge id=":1161264278_0" function="internal">
        <lane id=":1161264278_0_0" index="0" disallow="tram rail_urban rail rail_electric rail_fast ship" speed="27.78" length="12.19" shape="648.18,1010.43 650.86,1012.26 652.99,1013.03 655.28,1013.51 658.46,1014.50"/>
        <lane id=":1161264278_0_1" index="1" disallow="tram rail_urban rail rail_electric rail_fast ship" speed="27.78" length="12.19" shape="646.15,1012.90 649.07,1014.92 651.37,1015.81 653.84,1016.39 657.30,1017.49"/>
        <lane id=":1161264278_0_2" index="2" disallow="tram rail_urban rail rail_electric rail_fast ship" speed="27.78" length="12.19" shape="644.12,1015.37 647.27,1017.58 649.74,1018.59 652.41,1019.26 656.14,1020.47"/>
    </edge>
    <edge id=":1161264297_0" function="internal">
        <lane id=":1161264297_0_0" index="0" disallow="tram rail_urban rail rail_electric rail_fast ship" speed="8.93" length="7.42" shape="570.85,997.71 569.93,995.42 568.96,993.64 567.94,992.37 566.89,991.62"/>
    </edge>
    <edge id=":1161264297_1" function="internal">
        <lane id=":1161264297_1_0" index="0" disallow="tram rail_urban rail rail_electric rail_fast ship" speed="19.44" length="7.79" shape="574.00,994.82 566.89,991.62"/>
        <lane id=":1161264297_1_1" index="1" disallow="tram rail_urban rail rail_electric rail_fast ship" speed="19.44" length="7.79" shape="575.31,991.90 568.22,988.71"/>
    </edge>
    <edge id=":1161267566_0" function="internal">
        <lane id=":1161267566_0_0" index="0" disallow="tram rail_urban rail rail_electric rail_fast ship" speed="3.65" length="4.67" shape="289.16,793.91 288.41,792.69 288.38,791.79 289.07,791.23 290.50,791.01"/>
    </edge>
    <edge id=":1161268625_0" function="internal">
        <lane id=":1161268625_0_0" index="0" disallow="tram rail_urban rail rail_electric rail_fast ship" speed="3.65" length="4.67" shape="377.83,938.30 376.78,937.31 376.51,936.46 377.04,935.73 378.35,935.14"/>
    </edge>
    <edge id=":1161268670_0" function="internal">
        <lane id=":1161268670_0_0" index="0" disallow="tram rail_urban rail rail_electric rail_fast ship" speed="6.56" length="9.07" shape="574.57,1028.10 572.20,1027.44 570.16,1027.70 568.47,1028.87 567.12,1030.96"/>
    </edge>
    <edge id=":1161268670_1" function="internal">
        <lane id=":1161268670_1_0" index="0" disallow="tram rail_urban rail rail_electric rail_fast ship" speed="13.89" length="14.36" shape="574.57,1028.10 561.49,1022.18"/>
    </edge>
    <edge id=":1161268670_2" function="internal">
        <lane id=":1161268670_2_0" index="0" disallow="tram rail_urban rail rail_electric rail_fast ship" speed="9.08" length="3.18" shape="574.57,1028.10 571.99,1026.26"/>
    </edge>
    <edge id=":1161268670_3" function="internal">
        <lane id=":1161268670_3_0" index="0" disallow="tram rail_urban rail rail_electric rail_fast ship" speed="3.65" length="1.44" shape="574.57,1028.10 573.80,1026.89"/>
    </edge>
    <edge id=":1161268670_16" function="internal">
        <lane id=":1161268670_16_0" index="0" disallow="tram rail_urban rail rail_electric rail_fast ship" speed="9.08" length="11.91" shape="571.99,1026.26 570.39,1023.43 569.80,1019.62 570.19,1014.83"/>
    </edge>
    <edge id=":1161268670_17" function="internal">
        <lane id=":1161268670_17_0" index="0" disallow="tram rail_urban rail rail_electric rail_fast ship" speed="3.65" length="3.23" shape="573.80,1026.89 573.75,1026.00 574.44,1025.42 575.86,1025.17"/>
    </edge>
    <edge id=":1161268670_4" function="internal">
        <lane id=":1161268670_4_0" index="0" disallow="tram rail_urban rail rail_electric rail_fast ship" speed="6.11" length="10.02" shape="575.05,1017.32 573.17,1019.77 572.67,1021.90 573.57,1023.70 575.86,1025.17"/>
    </edge>
    <edge id=":1161268670_5" function="internal">
        <lane id=":1161268670_5_0" index="0" disallow="tram rail_urban rail rail_electric rail_fast ship" speed="13.89" length="15.86" shape="575.05,1017.32 572.63,1020.31 570.56,1023.77 568.75,1027.42 567.12,1030.96"/>
    </edge>
    <edge id=":1161268670_6" function="internal">
        <lane id=":1161268670_6_0" index="0" disallow="tram rail_urban rail rail_electric rail_fast ship" speed="9.58" length="15.35" shape="575.05,1017.32 571.37,1020.50 567.88,1022.36 564.59,1022.93 561.49,1022.18"/>
    </edge>
    <edge id=":1161268670_7" function="internal">
        <lane id=":1161268670_7_0" index="0" disallow="tram rail_urban rail rail_electric rail_fast ship" speed="5.47" length="10.52" shape="575.05,1017.32 572.36,1019.58 570.65,1019.92 569.93,1018.34 570.19,1014.83"/>
    </edge>
    <edge id=":1161268670_8" function="internal">
        <lane id=":1161268670_8_0" index="0" disallow="tram rail_urban rail rail_electric rail_fast ship" speed="6.41" length="10.54" shape="562.85,1019.28 565.60,1020.07 567.74,1019.59 569.27,1017.85 570.19,1014.83"/>
    </edge>
    <edge id=":1161268670_9" function="internal">
        <lane id=":1161268670_9_0" index="0" disallow="tram rail_urban rail rail_electric rail_fast ship" speed="13.89" length="14.29" shape="562.85,1019.28 575.86,1025.17"/>
    </edge>
    <edge id=":1161268670_10" function="internal">
        <lane id=":1161268670_10_0" index="0" disallow="tram rail_urban rail rail_electric rail_fast ship" speed="8.01" length="3.88" shape="562.85,1019.28 566.10,1021.40"/>
    </edge>
    <edge id=":1161268670_11" function="internal">
        <lane id=":1161268670_11_0" index="0" disallow="tram rail_urban rail rail_electric rail_fast ship" speed="3.65" length="1.44" shape="562.85,1019.28 563.59,1020.51"/>
    </edge>
    <edge id=":1161268670_18" function="internal">
        <lane id=":1161268670_18_0" index="0" disallow="tram rail_urban rail rail_electric rail_fast ship" speed="8.01" length="10.29" shape="566.10,1021.40 567.89,1024.06 568.23,1027.25 567.12,1030.96"/>
    </edge>
    <edge id=":1161268670_19" function="internal">
        <lane id=":1161268670_19_0" index="0" disallow="tram rail_urban rail rail_electric rail_fast ship" speed="3.65" length="3.23" shape="563.59,1020.51 563.62,1021.41 562.92,1021.96 561.49,1022.18"/>
    </edge>
    <edge id=":1161268670_12" function="internal">
        <lane id=":1161268670_12_0" index="0" disallow="tram rail_urban rail rail_electric rail_fast ship" speed="6.52" length="9.03" shape="564.21,1029.62 564.92,1027.25 564.71,1025.22 563.56,1023.53 561.49,1022.18"/>
    </edge>
    <edge id=":1161268670_13" function="internal">
        <lane id=":1161268670_13_0" index="0" disallow="tram rail_urban rail rail_electric rail_fast ship" speed="13.89" length="16.00" shape="564.21,1029.62 565.92,1026.09 567.68,1022.37 569.20,1018.58 570.19,1014.83"/>
    </edge>
    <edge id=":1161268670_14" function="internal">
        <lane id=":1161268670_14_0" index="0" disallow="tram rail_urban rail rail_electric rail_fast ship" speed="8.05" length="14.16" shape="564.21,1029.62 566.32,1026.36 568.96,1024.54 572.14,1024.14 575.86,1025.17"/>
    </edge>
    <edge id=":1161268670_15" function="internal">
        <lane id=":1161268670_15_0" index="0" disallow="tram rail_urban rail rail_electric rail_fast ship" speed="3.65" length="4.67" shape="564.21,1029.62 565.44,1028.87 566.34,1028.84 566.90,1029.54 567.12,1030.96"/>
    </edge>
    <edge id=":1161268678_0" function="internal">
        <lane id=":1161268678_0_0" index="0" disallow="tram rail_urban rail rail_electric rail_fast ship" speed="6.96" length="3.24" shape="645.84,1065.79 646.20,1066.67 646.35,1067.32 646.31,1067.99 646.10,1068.92"/>
    </edge>
    <edge id=":1161268678_1" function="internal">
        <lane id=":1161268678_1_0" index="0" disallow="tram rail_urban rail rail_electric rail_fast ship" speed="4.37" length="1.08" shape="643.00,1068.13 643.07,1067.82 643.08,1067.59 643.03,1067.38 642.91,1067.08"/>
    </edge>
    <edge id=":1161268710_0" function="internal">
        <lane id=":1161268710_0_0" index="0" disallow="tram rail_urban rail rail_electric rail_fast ship" speed="6.07" length="8.27" shape="456.03,1378.97 454.23,1377.55 453.37,1375.92 453.46,1374.09 454.50,1372.04"/>
    </edge>
    <edge id=":1161268710_1" function="internal">
        <lane id=":1161268710_1_0" index="0" disallow="tram rail_urban rail rail_electric rail_fast ship" speed="3.90" length="2.76" shape="457.12,1373.88 456.77,1374.57 456.74,1375.18 457.03,1375.72 457.63,1376.19"/>
    </edge>
    <edge id=":1161268814_0" function="internal">
        <lane id=":1161268814_0_0" index="0" disallow="tram rail_urban rail rail_electric rail_fast ship" speed="3.65" length="4.67" shape="398.38,1064.75 397.62,1063.52 397.58,1062.63 398.28,1062.07 399.70,1061.83"/>
    </edge>
    <edge id=":1171076927_0" function="internal">
        <lane id=":1171076927_0_0" index="0" disallow="tram rail_urban rail rail_electric rail_fast ship" speed="3.65" length="4.67" shape="848.17,1330.93 847.08,1331.88 846.21,1332.05 845.54,1331.46 845.09,1330.09"/>
    </edge>
    <edge id=":1171076940_0" function="internal">
        <lane id=":1171076940_0_0" index="0" disallow="tram rail_urban rail rail_electric rail_fast ship" speed="3.65" length="4.67" shape="918.52,1353.15 917.46,1354.13 916.59,1354.34 915.90,1353.76 915.40,1352.41"/>
    </edge>
    <edge id=":1171077099_0" function="internal">
        <lane id=":1171077099_0_0" index="0" disallow="tram rail_urban rail rail_electric rail_fast ship" speed="6.44" length="9.03" shape="895.33,1179.76 892.87,1179.38 890.91,1179.89 889.43,1181.28 888.45,1183.57"/>
    </edge>
    <edge id=":1171077099_1" function="internal">
        <lane id=":1171077099_1_0" index="0" disallow="tram rail_urban rail rail_electric rail_fast ship" speed="13.89" length="14.59" shape="895.33,1179.76 881.35,1175.61"/>
    </edge>
    <edge id=":1171077099_2" function="internal">
        <lane id=":1171077099_2_0" index="0" disallow="tram rail_urban rail rail_electric rail_fast ship" speed="8.20" length="4.06" shape="895.33,1179.76 891.77,1178.10 891.68,1178.00"/>
    </edge>
    <edge id=":1171077099_3" function="internal">
        <lane id=":1171077099_3_0" index="0" disallow="tram rail_urban rail rail_electric rail_fast ship" speed="3.65" length="1.44" shape="895.33,1179.76 894.42,1178.64"/>
    </edge>
    <edge id=":1171077099_16" function="internal">
        <lane id=":1171077099_16_0" index="0" disallow="tram rail_urban rail rail_electric rail_fast ship" speed="8.20" length="10.37" shape="891.68,1178.00 889.54,1175.69 888.63,1172.53 889.06,1168.62"/>
    </edge>
    <edge id=":1171077099_17" function="internal">
        <lane id=":1171077099_17_0" index="0" disallow="tram rail_urban rail rail_electric rail_fast ship" speed="3.65" length="3.23" shape="894.42,1178.64 894.27,1177.76 894.88,1177.11 896.26,1176.70"/>
    </edge>
    <edge id=":1171077099_4" function="internal">
        <lane id=":1171077099_4_0" index="0" disallow="tram rail_urban rail rail_electric rail_fast ship" speed="6.75" length="9.44" shape="892.16,1169.41 891.88,1171.97 892.47,1174.03 893.93,1175.61 896.26,1176.70"/>
    </edge>
    <edge id=":1171077099_5" function="internal">
        <lane id=":1171077099_5_0" index="0" disallow="tram rail_urban rail rail_electric rail_fast ship" speed="13.89" length="14.63" shape="892.16,1169.41 888.45,1183.57"/>
    </edge>
    <edge id=":1171077099_6" function="internal">
        <lane id=":1171077099_6_0" index="0" disallow="tram rail_urban rail rail_electric rail_fast ship" speed="7.94" length="14.32" shape="892.16,1169.41 890.66,1173.06 888.35,1175.30 885.25,1176.15 881.35,1175.61"/>
    </edge>
    <edge id=":1171077099_7" function="internal">
        <lane id=":1171077099_7_0" index="0" disallow="tram rail_urban rail rail_electric rail_fast ship" speed="3.65" length="4.67" shape="892.16,1169.41 891.09,1170.38 890.21,1170.57 889.54,1169.98 889.06,1168.62"/>
    </edge>
    <edge id=":1171077099_8" function="internal">
        <lane id=":1171077099_8_0" index="0" disallow="tram rail_urban rail rail_electric rail_fast ship" speed="6.44" length="9.03" shape="882.23,1172.54 884.70,1172.88 886.66,1172.34 888.11,1170.92 889.06,1168.62"/>
    </edge>
    <edge id=":1171077099_9" function="internal">
        <lane id=":1171077099_9_0" index="0" disallow="tram rail_urban rail rail_electric rail_fast ship" speed="13.89" length="14.63" shape="882.23,1172.54 896.26,1176.70"/>
    </edge>
    <edge id=":1171077099_10" function="internal">
        <lane id=":1171077099_10_0" index="0" disallow="tram rail_urban rail rail_electric rail_fast ship" speed="8.10" length="4.16" shape="882.23,1172.54 885.82,1174.15 885.98,1174.31"/>
    </edge>
    <edge id=":1171077099_11" function="internal">
        <lane id=":1171077099_11_0" index="0" disallow="tram rail_urban rail rail_electric rail_fast ship" speed="3.65" length="1.44" shape="882.23,1172.54 883.17,1173.64"/>
    </edge>
    <edge id=":1171077099_18" function="internal">
        <lane id=":1171077099_18_0" index="0" disallow="tram rail_urban rail rail_electric rail_fast ship" speed="8.10" length="10.22" shape="885.98,1174.31 888.05,1176.53 888.93,1179.67 888.45,1183.57"/>
    </edge>
    <edge id=":1171077099_19" function="internal">
        <lane id=":1171077099_19_0" index="0" disallow="tram rail_urban rail rail_electric rail_fast ship" speed="3.65" length="3.23" shape="883.17,1173.64 883.33,1174.52 882.72,1175.17 881.35,1175.61"/>
    </edge>
    <edge id=":1171077099_12" function="internal">
        <lane id=":1171077099_12_0" index="0" disallow="tram rail_urban rail rail_electric rail_fast ship" speed="6.63" length="9.29" shape="885.36,1182.73 885.67,1180.21 885.11,1178.19 883.66,1176.65 881.35,1175.61"/>
    </edge>
    <edge id=":1171077099_13" function="internal">
        <lane id=":1171077099_13_0" index="0" disallow="tram rail_urban rail rail_electric rail_fast ship" speed="13.89" length="14.58" shape="885.36,1182.73 889.06,1168.62"/>
    </edge>
    <edge id=":1171077099_14" function="internal">
        <lane id=":1171077099_14_0" index="0" disallow="tram rail_urban rail rail_electric rail_fast ship" speed="7.94" length="14.31" shape="885.36,1182.73 886.92,1179.11 889.25,1176.90 892.37,1176.10 896.26,1176.70"/>
    </edge>
    <edge id=":1171077099_15" function="internal">
        <lane id=":1171077099_15_0" index="0" disallow="tram rail_urban rail rail_electric rail_fast ship" speed="3.65" length="4.67" shape="885.36,1182.73 886.45,1181.78 887.32,1181.61 887.99,1182.20 888.45,1183.57"/>
    </edge>
    <edge id=":1171077107_0" function="internal">
        <lane id=":1171077107_0_0" index="0" disallow="tram rail_urban rail rail_electric rail_fast ship" speed="3.65" length="4.67" shape="767.62,1212.74 766.36,1213.44 765.46,1213.44 764.93,1212.72 764.76,1211.28"/>
    </edge>
    <edge id=":257375847#1-AddedOffRampNode_0" function="internal">
        <lane id=":257375847#1-AddedOffRampNode_0_0" index="0" disallow="pedestrian tram rail_urban rail rail_electric rail_fast ship" speed="27.78" length="8.73" shape="950.34,814.11 949.78,816.92 950.98,819.19 952.17,821.46 951.61,824.28"/>
        <lane id=":257375847#1-AddedOffRampNode_0_1" index="1" disallow="pedestrian tram rail_urban rail rail_electric rail_fast ship" speed="27.78" length="8.73" shape="950.34,814.11 949.48,816.47 949.61,818.35 949.75,820.24 948.88,822.60"/>
        <lane id=":257375847#1-AddedOffRampNode_0_2" index="2" disallow="pedestrian tram rail_urban rail rail_electric rail_fast ship" speed="27.78" length="8.73" shape="950.34,814.11 946.16,820.93"/>
        <lane id=":257375847#1-AddedOffRampNode_0_3" index="3" disallow="pedestrian tram rail_urban rail rail_electric rail_fast ship" speed="27.78" length="8.73" shape="947.61,812.43 943.43,819.25"/>
        <lane id=":257375847#1-AddedOffRampNode_0_4" index="4" disallow="pedestrian tram rail_urban rail rail_electric rail_fast ship" speed="27.78" length="8.73" shape="944.88,810.76 940.70,817.58"/>
    </edge>
    <edge id=":257375847#2-AddedOffRampNode_0" function="internal">
        <lane id=":257375847#2-AddedOffRampNode_0_0" index="0" disallow="pedestrian tram rail_urban rail rail_electric rail_fast ship" speed="27.78" length="3.91" shape="895.06,907.23 894.43,912.01"/>