<?xml version="1.0" encoding="UTF-8"?>

<!-- generated on 2023-03-08 14:38:08 by Eclipse SUMO netedit Version 1.14.1
<configuration xmlns:xsi="http://www.w3.org/2001/XMLSchema-instance" xsi:noNamespaceSchemaLocation="http://sumo.dlr.de/xsd/netconvertConfiguration.xsd">

    <input>
        <sumo-net-file value="salmania.net.xml"/>
    </input>

    <output>
        <output-file value="salmania.net.xml"/>
    </output>

    <processing>
        <geometry.min-radius.fix.railways value="false"/>
        <geometry.max-grade.fix value="false"/>
        <offset.disable-normalization value="true"/>
        <lefthand value="false"/>
    </processing>

    <junctions>
        <no-turnarounds value="true"/>
        <junctions.corner-detail value="5"/>
        <junctions.limit-turn-speed value="5.5"/>
        <rectangular-lane-cut value="false"/>
    </junctions>

    <pedestrian>
        <walkingareas value="false"/>
    </pedestrian>

</configuration>
-->

<net version="1.9" junctionCornerDetail="5" limitTurnSpeed="5.50" xmlns:xsi="http://www.w3.org/2001/XMLSchema-instance" xsi:noNamespaceSchemaLocation="http://sumo.dlr.de/xsd/net_file.xsd">

    <location netOffset="-456051.22,-2898394.24" convBoundary="195.94,0.00,1373.38,2169.58" origBoundary="50.560054,26.204418,50.573784,26.223992" projParameter="+proj=utm +zone=39 +ellps=WGS84 +datum=WGS84 +units=m +no_defs"/>

    <type id="highway.bridleway" priority="1" numLanes="1" speed="2.78" allow="pedestrian" oneway="1" width="2.00"/>
    <type id="highway.bus_guideway" priority="1" numLanes="1" speed="27.78" allow="bus" oneway="1"/>
    <type id="highway.cycleway" priority="1" numLanes="1" speed="5.56" allow="bicycle" oneway="0" width="1.00"/>
    <type id="highway.footway" priority="1" numLanes="1" speed="2.78" allow="pedestrian" oneway="1" width="2.00"/>
    <type id="highway.ford" priority="1" numLanes="1" speed="2.78" allow="army" oneway="0"/>
    <type id="highway.living_street" priority="2" numLanes="1" speed="2.78" disallow="tram rail_urban rail rail_electric rail_fast ship" oneway="0"/>
    <type id="highway.motorway" priority="14" numLanes="2" speed="39.44" allow="private emergency authority army vip passenger hov taxi bus coach delivery truck trailer motorcycle evehicle custom1 custom2" oneway="1"/>
    <type id="highway.motorway_link" priority="9" numLanes="1" speed="22.22" allow="private emergency authority army vip passenger hov taxi bus coach delivery truck trailer motorcycle evehicle custom1 custom2" oneway="1"/>
    <type id="highway.path" priority="1" numLanes="1" speed="5.56" allow="pedestrian bicycle" oneway="0" width="2.00"/>
    <type id="highway.pedestrian" priority="1" numLanes="1" speed="2.78" allow="pedestrian" oneway="1" width="2.00"/>
    <type id="highway.primary" priority="12" numLanes="2" speed="27.78" disallow="tram rail_urban rail rail_electric rail_fast ship" oneway="0"/>
    <type id="highway.primary_link" priority="7" numLanes="1" speed="22.22" disallow="tram rail_urban rail rail_electric rail_fast ship" oneway="0"/>
    <type id="highway.raceway" priority="15" numLanes="2" speed="83.33" allow="vip" oneway="0"/>
    <type id="highway.residential" priority="3" numLanes="1" speed="13.89" disallow="tram rail_urban rail rail_electric rail_fast ship" oneway="0"/>
    <type id="highway.secondary" priority="11" numLanes="1" speed="27.78" disallow="tram rail_urban rail rail_electric rail_fast ship" oneway="0"/>
    <type id="highway.secondary_link" priority="6" numLanes="1" speed="22.22" disallow="tram rail_urban rail rail_electric rail_fast ship" oneway="0"/>
    <type id="highway.service" priority="1" numLanes="1" speed="5.56" allow="pedestrian delivery bicycle" oneway="0"/>
    <type id="highway.stairs" priority="1" numLanes="1" speed="1.39" allow="pedestrian" oneway="1" width="2.00"/>
    <type id="highway.step" priority="1" numLanes="1" speed="1.39" allow="pedestrian" oneway="1" width="2.00"/>
    <type id="highway.steps" priority="1" numLanes="1" speed="1.39" allow="pedestrian" oneway="1" width="2.00"/>
    <type id="highway.tertiary" priority="10" numLanes="1" speed="22.22" disallow="tram rail_urban rail rail_electric rail_fast ship" oneway="0"/>
    <type id="highway.tertiary_link" priority="5" numLanes="1" speed="22.22" disallow="tram rail_urban rail rail_electric rail_fast ship" oneway="0"/>
    <type id="highway.track" priority="1" numLanes="1" speed="5.56" allow="pedestrian motorcycle moped bicycle" oneway="0"/>
    <type id="highway.trunk" priority="13" numLanes="2" speed="27.78" disallow="pedestrian bicycle tram rail_urban rail rail_electric rail_fast ship" oneway="0"/>
    <type id="highway.trunk_link" priority="8" numLanes="1" speed="22.22" disallow="pedestrian bicycle tram rail_urban rail rail_electric rail_fast ship" oneway="0"/>
    <type id="highway.unclassified" priority="4" numLanes="1" speed="13.89" disallow="tram rail_urban rail rail_electric rail_fast ship" oneway="0"/>
    <type id="highway.unsurfaced" priority="1" numLanes="1" speed="8.33" disallow="tram rail_urban rail rail_electric rail_fast ship" oneway="0"/>
    <type id="railway.highspeed" priority="21" numLanes="1" speed="69.44" allow="rail_fast" oneway="1"/>
    <type id="railway.light_rail" priority="19" numLanes="1" speed="27.78" allow="rail_urban" oneway="1"/>
    <type id="railway.preserved" priority="16" numLanes="1" speed="27.78" allow="rail" oneway="1"/>
    <type id="railway.rail" priority="20" numLanes="1" speed="44.44" allow="rail" oneway="1"/>
    <type id="railway.subway" priority="18" numLanes="1" speed="27.78" allow="rail_urban" oneway="1"/>
    <type id="railway.tram" priority="17" numLanes="1" speed="13.89" allow="tram" oneway="1"/>

    <edge id=":10316540345_0" function="internal">
        <lane id=":10316540345_0_0" index="0" disallow="tram rail_urban rail rail_electric rail_fast ship" speed="22.22" length="0.26" shape="582.39,1570.07 582.56,1569.99"/>
        <lane id=":10316540345_0_1" index="1" disallow="tram rail_urban rail rail_electric rail_fast ship" speed="22.22" length="0.26" shape="583.81,1572.94 584.11,1572.79"/>
    </edge>
    <edge id=":1157401209_0" function="internal">
        <lane id=":1157401209_0_0" index="0" disallow="tram rail_urban rail rail_electric rail_fast ship" speed="19.64" length="15.88" shape="616.63,1580.56 613.10,1580.06 609.66,1579.61 605.81,1579.82 601.04,1581.28"/>
    </edge>
    <edge id=":1157401209_1" function="internal">
        <lane id=":1157401209_1_0" index="0" disallow="tram rail_urban rail rail_electric rail_fast ship" speed="22.22" length="16.03" shape="615.99,1575.74 601.04,1581.28"/>
        <lane id=":1157401209_1_1" index="1" disallow="tram rail_urban rail rail_electric rail_fast ship" speed="22.22" length="16.03" shape="614.90,1572.74 599.79,1578.34"/>
    </edge>
    <edge id=":1157401211_0" function="internal">
        <lane id=":1157401211_0_0" index="0" disallow="tram rail_urban rail rail_electric rail_fast ship" speed="10.81" length="7.74" shape="706.92,1585.68 706.49,1587.95 706.17,1589.58 706.28,1591.13 707.16,1593.16"/>
    </edge>
    <edge id=":1157401211_1" function="internal">
        <lane id=":1157401211_1_0" index="0" disallow="tram rail_urban rail rail_electric rail_fast ship" speed="13.89" length="7.74" shape="702.98,1586.54 707.16,1593.16"/>
        <lane id=":1157401211_1_1" index="1" disallow="tram rail_urban rail rail_electric rail_fast ship" speed="13.89" length="7.74" shape="700.28,1588.25 704.37,1594.72"/>
    </edge>
    <edge id=":1157401228_0" function="internal">
        <lane id=":1157401228_0_0" index="0" disallow="tram rail_urban rail rail_electric rail_fast ship" speed="18.05" length="16.78" shape="754.95,1555.27 749.53,1554.97 745.32,1555.09 741.79,1555.66 738.39,1556.72"/>
    </edge>
    <edge id=":1157401228_1" function="internal">
        <lane id=":1157401228_1_0" index="0" disallow="tram rail_urban rail rail_electric rail_fast ship" speed="13.89" length="16.70" shape="754.95,1555.27 750.00,1554.69 746.66,1553.97 743.33,1553.11 738.43,1552.12"/>
        <lane id=":1157401228_1_1" index="1" disallow="tram rail_urban rail rail_electric rail_fast ship" speed="13.89" length="16.70" shape="755.21,1552.08 750.34,1551.51 747.06,1550.79 743.79,1549.95 738.97,1548.97"/>
    </edge>
    <edge id=":1301842420_0" function="internal">
        <lane id=":1301842420_0_0" index="0" disallow="tram rail_urban rail rail_electric rail_fast ship" speed="12.23" length="8.00" shape="711.13,1531.01 713.06,1532.42 714.42,1533.46 715.89,1534.10 718.18,1534.33"/>
    </edge>
    <edge id=":1301842420_1" function="internal">
        <lane id=":1301842420_1_0" index="0" disallow="tram rail_urban rail rail_electric rail_fast ship" speed="13.89" length="7.97" shape="710.12,1534.86 718.18,1534.33"/>
        <lane id=":1301842420_1_1" index="1" disallow="tram rail_urban rail rail_electric rail_fast ship" speed="13.89" length="7.97" shape="710.31,1538.06 718.15,1537.53"/>
    </edge>
    <edge id=":1301842440_0" function="internal">
        <lane id=":1301842440_0_0" index="0" disallow="tram rail_urban rail rail_electric rail_fast ship" speed="27.78" length="1.23" shape="566.91,1391.36 567.40,1391.72 567.72,1391.98 568.01,1392.28 568.40,1392.74"/>
        <lane id=":1301842440_0_1" index="1" disallow="tram rail_urban rail rail_electric rail_fast ship" speed="27.78" length="1.23" shape="565.06,1393.97 565.35,1394.19 565.55,1394.34 565.72,1394.52 565.96,1394.80"/>
        <lane id=":1301842440_0_2" index="2" disallow="tram rail_urban rail rail_electric rail_fast ship" speed="27.78" length="1.23" shape="563.21,1396.59 563.31,1396.66 563.37,1396.71 563.43,1396.77 563.51,1396.86"/>
    </edge>
    <edge id=":1301842499_0" function="internal">
        <lane id=":1301842499_0_0" index="0" disallow="tram rail_urban rail rail_electric rail_fast ship" speed="22.22" length="0.10" shape="666.14,1510.78 666.14,1510.78"/>
    </edge>
    <edge id=":1301842678_0" function="internal">
        <lane id=":1301842678_0_0" index="0" disallow="tram rail_urban rail rail_electric rail_fast ship" speed="13.89" length="0.22" shape="728.06,1628.50 728.13,1628.59"/>
        <lane id=":1301842678_0_1" index="1" disallow="tram rail_urban rail rail_electric rail_fast ship" speed="13.89" length="0.22" shape="725.37,1630.23 725.57,1630.51"/>
    </edge>
    <edge id=":2507986998_0" function="internal">
        <lane id=":2507986998_0_0" index="0" disallow="tram rail_urban rail rail_electric rail_fast ship" speed="22.22" length="0.29" shape="214.38,2141.57 214.31,2141.87"/>
        <lane id=":2507986998_0_1" index="1" disallow="tram rail_urban rail rail_electric rail_fast ship" speed="22.22" length="0.29" shape="211.27,2140.83 211.20,2141.09"/>
    </edge>
    <edge id=":30896544_0" function="internal">
        <lane id=":30896544_0_0" index="0" disallow="tram rail_urban rail rail_electric rail_fast ship" speed="22.22" length="17.64" shape="589.02,1566.42 593.89,1563.39 597.39,1560.62 600.16,1558.04 602.82,1555.55"/>
    </edge>
    <edge id=":30896544_1" function="internal">
        <lane id=":30896544_1_0" index="0" disallow="tram rail_urban rail rail_electric rail_fast ship" speed="22.22" length="17.60" shape="589.02,1566.42 605.16,1559.14"/>
        <lane id=":30896544_1_1" index="1" disallow="tram rail_urban rail rail_electric rail_fast ship" speed="22.22" length="17.60" shape="590.56,1569.22 606.51,1562.04"/>
    </edge>
    <edge id=":30906801_0" function="internal">
        <lane id=":30906801_0_0" index="0" disallow="tram rail_urban rail rail_electric rail_fast ship" speed="25.00" length="0.30" shape="532.27,1368.02 532.55,1368.18"/>
        <lane id=":30906801_0_1" index="1" disallow="tram rail_urban rail rail_electric rail_fast ship" speed="25.00" length="0.30" shape="530.67,1370.80 530.93,1370.95"/>
        <lane id=":30906801_0_2" index="2" disallow="tram rail_urban rail rail_electric rail_fast ship" speed="25.00" length="0.30" shape="529.07,1373.57 529.31,1373.71"/>
    </edge>
    <edge id=":30906804_0" function="internal">
        <lane id=":30906804_0_0" index="0" disallow="tram rail_urban rail rail_electric rail_fast ship" speed="25.00" length="20.98" shape="632.95,1484.30 637.27,1489.52 641.26,1493.38 644.87,1496.33 648.03,1498.78"/>
    </edge>
    <edge id=":30906804_1" function="internal">
        <lane id=":30906804_1_0" index="0" disallow="tram rail_urban rail rail_electric rail_fast ship" speed="27.78" length="20.96" shape="632.95,1484.30 644.91,1501.57"/>
        <lane id=":30906804_1_1" index="1" disallow="tram rail_urban rail rail_electric rail_fast ship" speed="27.78" length="20.96" shape="630.38,1486.20 642.28,1503.40"/>
    </edge>
    <edge id=":30906835_0" function="internal">
        <lane id=":30906835_0_0" index="0" disallow="tram rail_urban rail rail_electric rail_fast ship" speed="22.22" length="0.27" shape="576.84,1441.09 576.76,1440.99"/>
        <lane id=":30906835_0_1" index="1" disallow="tram rail_urban rail rail_electric rail_fast ship" speed="22.22" length="0.27" shape="579.38,1439.14 579.12,1438.83"/>
    </edge>
    <edge id=":30906836_0" function="internal">
        <lane id=":30906836_0_0" index="0" disallow="tram rail_urban rail rail_electric rail_fast ship" speed="22.22" length="0.24" shape="601.91,1473.81 601.81,1473.67"/>
        <lane id=":30906836_0_1" index="1" disallow="tram rail_urban rail rail_electric rail_fast ship" speed="22.22" length="0.24" shape="604.53,1471.97 604.35,1471.72"/>
    </edge>
    <edge id=":30906837_0" function="internal">
        <lane id=":30906837_0_0" index="0" disallow="tram rail_urban rail rail_electric rail_fast ship" speed="22.22" length="7.89" shape="627.55,1513.99 623.17,1507.33"/>
        <lane id=":30906837_0_1" index="1" disallow="tram rail_urban rail rail_electric rail_fast ship" speed="22.22" length="7.89" shape="630.23,1512.24 625.94,1505.73"/>
    </edge>
    <edge id=":30906837_2" function="internal">
        <lane id=":30906837_2_0" index="0" disallow="tram rail_urban rail rail_electric rail_fast ship" speed="11.40" length="7.90" shape="623.67,1514.97 624.00,1512.64 624.26,1510.96 624.10,1509.38 623.17,1507.33"/>
    </edge>
    <edge id=":314939591_0" function="internal">
        <lane id=":314939591_0_0" index="0" disallow="tram rail_urban rail rail_electric rail_fast ship" speed="13.89" length="13.51" shape="740.36,1671.76 732.77,1660.43"/>
        <lane id=":314939591_0_1" index="1" disallow="tram rail_urban rail rail_electric rail_fast ship" speed="13.89" length="13.51" shape="742.90,1669.82 735.46,1658.69"/>
    </edge>
    <edge id=":314939591_2" function="internal">
        <lane id=":314939591_2_0" index="0" disallow="tram rail_urban rail rail_electric rail_fast ship" speed="5.51" length="11.22" shape="740.54,1658.08 740.46,1661.68 739.59,1662.98 737.93,1661.99 735.46,1658.69"/>
    </edge>
    <edge id=":3570356199_0" function="internal">
        <lane id=":3570356199_0_0" index="0" disallow="tram rail_urban rail rail_electric rail_fast ship" speed="22.22" length="23.44" shape="553.00,1584.53 574.10,1574.16"/>
        <lane id=":3570356199_0_1" index="1" disallow="tram rail_urban rail rail_electric rail_fast ship" speed="22.22" length="23.44" shape="554.55,1587.33 575.52,1577.03"/>
    </edge>
    <edge id=":3570356199_2" function="internal">
        <lane id=":3570356199_2_0" index="0" disallow="tram rail_urban rail rail_electric rail_fast ship" speed="22.22" length="23.28" shape="554.55,1587.33 561.03,1584.44 567.14,1582.71 572.50,1581.64 576.77,1580.72"/>
    </edge>
    <edge id=":3570356202_0" function="internal">
        <lane id=":3570356202_0_0" index="0" disallow="tram rail_urban rail rail_electric rail_fast ship" speed="13.89" length="4.14" shape="655.33,1553.76 652.84,1550.60"/>
        <lane id=":3570356202_0_1" index="1" disallow="tram rail_urban rail rail_electric rail_fast ship" speed="13.89" length="4.14" shape="657.95,1551.93 655.32,1548.57"/>
    </edge>
    <edge id=":3570356202_2" function="internal">
        <lane id=":3570356202_2_0" index="0" disallow="tram rail_urban rail rail_electric rail_fast ship" speed="3.08" length="1.57" shape="657.95,1551.93 657.88,1551.62 658.14,1551.45 658.58,1551.36 659.07,1551.27"/>
    </edge>
    <edge id=":3570356202_3" function="internal">
        <lane id=":3570356202_3_0" index="0" disallow="tram rail_urban rail rail_electric rail_fast ship" speed="22.22" length="10.15" shape="649.36,1554.19 652.20,1553.23 654.17,1552.57 656.17,1551.99 659.07,1551.27"/>
    </edge>
    <edge id=":3570356203_0" function="internal">
        <lane id=":3570356203_0_0" index="0" disallow="tram rail_urban rail rail_electric rail_fast ship" speed="13.89" length="14.88" shape="780.55,1557.58 776.26,1556.84 773.29,1556.55 770.30,1556.43 765.95,1556.16"/>
        <lane id=":3570356203_0_1" index="1" disallow="tram rail_urban rail rail_electric rail_fast ship" speed="13.89" length="14.88" shape="781.18,1554.45 776.78,1553.68 773.74,1553.38 770.67,1553.25 766.21,1552.97"/>
    </edge>
    <edge id=":3570356203_2" function="internal">
        <lane id=":3570356203_2_0" index="0" disallow="tram rail_urban rail rail_electric rail_fast ship" speed="12.50" length="14.76" shape="781.18,1554.45 776.87,1553.65 773.90,1552.97 771.16,1551.74 767.58,1549.31"/>
        <lane id=":3570356203_2_1" index="1" disallow="tram rail_urban rail rail_electric rail_fast ship" speed="12.50" length="14.26" shape="781.18,1554.45 777.25,1553.25 774.87,1551.65 772.72,1549.52 769.49,1546.75"/>
    </edge>
    <edge id=":3570356205_0" function="internal">
        <lane id=":3570356205_0_0" index="0" disallow="tram rail_urban rail rail_electric rail_fast ship" speed="11.11" length="0.28" shape="698.76,1544.34 698.53,1544.36"/>
        <lane id=":3570356205_0_1" index="1" disallow="tram rail_urban rail rail_electric rail_fast ship" speed="11.11" length="0.28" shape="698.55,1541.14 698.24,1541.17"/>
    </edge>
    <edge id=":3570361493_0" function="internal">
        <lane id=":3570361493_0_0" index="0" disallow="tram rail_urban rail rail_electric rail_fast ship" speed="13.89" length="25.86" shape="712.28,1628.56 696.77,1608.04"/>
        <lane id=":3570361493_0_1" index="1" disallow="tram rail_urban rail rail_electric rail_fast ship" speed="13.89" length="25.86" shape="714.97,1626.83 699.30,1606.09"/>
    </edge>
    <edge id=":3570361493_2" function="internal">
        <lane id=":3570361493_2_0" index="0" disallow="tram rail_urban rail rail_electric rail_fast ship" speed="12.50" length="25.65" shape="714.97,1626.83 702.25,1604.55"/>
        <lane id=":3570361493_2_1" index="1" disallow="tram rail_urban rail rail_electric rail_fast ship" speed="12.50" length="25.23" shape="714.97,1626.83 711.94,1620.84 710.13,1615.23 708.36,1609.60 705.40,1603.56"/>
    </edge>
    <edge id=":3570361496_0" function="internal">
        <lane id=":3570361496_0_0" index="0" disallow="tram rail_urban rail rail_electric rail_fast ship" speed="11.11" length="0.10" shape="677.53,1564.65 677.55,1564.69"/>
        <lane id=":3570361496_0_1" index="1" disallow="tram rail_urban rail rail_electric rail_fast ship" speed="11.11" length="0.10" shape="680.25,1562.96 680.24,1562.95"/>
    </edge>
    <edge id=":3570369701_0" function="internal">
        <lane id=":3570369701_0_0" index="0" disallow="tram rail_urban rail rail_electric rail_fast ship" speed="22.22" length="0.72" shape="649.86,1554.03 649.17,1554.25"/>
    </edge>
    <edge id=":3570369702_0" function="internal">
        <lane id=":3570369702_0_0" index="0" disallow="tram rail_urban rail rail_electric rail_fast ship" speed="22.22" length="0.24" shape="640.06,1542.89 639.89,1542.96"/>
        <lane id=":3570369702_0_1" index="1" disallow="tram rail_urban rail rail_electric rail_fast ship" speed="22.22" length="0.24" shape="641.42,1545.79 641.14,1545.90"/>
    </edge>
    <edge id=":3570369703_0" function="internal">
        <lane id=":3570369703_0_0" index="0" disallow="tram rail_urban rail rail_electric rail_fast ship" speed="13.89" length="0.30" shape="666.69,1569.04 666.51,1568.81"/>
        <lane id=":3570369703_0_1" index="1" disallow="tram rail_urban rail rail_electric rail_fast ship" speed="13.89" length="0.30" shape="669.22,1567.08 669.03,1566.84"/>
    </edge>
    <edge id=":3570369705_0" function="internal">
        <lane id=":3570369705_0_0" index="0" disallow="tram rail_urban rail rail_electric rail_fast ship" speed="13.89" length="0.26" shape="697.37,1555.20 697.19,1555.23"/>
        <lane id=":3570369705_0_1" index="1" disallow="tram rail_urban rail rail_electric rail_fast ship" speed="13.89" length="0.26" shape="696.98,1552.03 696.66,1552.07"/>
    </edge>
    <edge id=":3570369706_0" function="internal">
        <lane id=":3570369706_0_0" index="0" disallow="tram rail_urban rail rail_electric rail_fast ship" speed="25.00" length="0.25" shape="660.18,1523.43 660.35,1523.68"/>
        <lane id=":3570369706_0_1" index="1" disallow="tram rail_urban rail rail_electric rail_fast ship" speed="25.00" length="0.25" shape="657.56,1525.26 657.67,1525.43"/>
    </edge>
    <edge id=":3570369707_0" function="internal">
        <lane id=":3570369707_0_0" index="0" disallow="tram rail_urban rail rail_electric rail_fast ship" speed="27.78" length="19.83" shape="610.97,1452.18 613.89,1457.23 615.91,1460.69 618.08,1464.03 621.48,1468.77"/>
        <lane id=":3570369707_0_1" index="1" disallow="tram rail_urban rail rail_electric rail_fast ship" speed="27.78" length="19.83" shape="608.21,1453.80 611.19,1458.94 613.24,1462.45 615.45,1465.86 618.91,1470.67"/>
    </edge>
    <edge id=":3570369707_2" function="internal">
        <lane id=":3570369707_2_0" index="0" disallow="tram rail_urban rail rail_electric rail_fast ship" speed="19.45" length="20.11" shape="608.21,1453.80 610.69,1459.16 611.57,1463.21 612.43,1467.27 614.86,1472.66"/>
        <lane id=":3570369707_2_1" index="1" disallow="tram rail_urban rail rail_electric rail_fast ship" speed="19.45" length="19.31" shape="605.45,1455.42 608.12,1460.45 609.43,1464.13 610.32,1468.00 611.73,1473.56"/>
    </edge>
    <edge id=":3570369710_0" function="internal">
        <lane id=":3570369710_0_0" index="0" disallow="tram rail_urban rail rail_electric rail_fast ship" speed="11.11" length="9.03" shape="664.90,1546.41 662.12,1546.40 660.20,1546.46 658.31,1546.31 655.65,1545.65"/>
        <lane id=":3570369710_0_1" index="1" disallow="tram rail_urban rail rail_electric rail_fast ship" speed="11.11" length="9.03" shape="665.01,1543.21 662.42,1543.21 660.62,1543.27 658.86,1543.14 656.37,1542.52"/>
    </edge>
    <edge id=":3570369710_2" function="internal">
        <lane id=":3570369710_2_0" index="0" disallow="tram rail_urban rail rail_electric rail_fast ship" speed="11.11" length="9.80" shape="658.49,1539.32 660.04,1541.96 660.98,1543.85 661.62,1545.86 662.27,1548.84"/>
        <lane id=":3570369710_2_1" index="1" disallow="tram rail_urban rail rail_electric rail_fast ship" speed="11.11" length="9.80" shape="655.74,1540.95 657.13,1543.32 657.97,1545.01 658.55,1546.81 659.14,1549.49"/>
    </edge>
    <edge id=":3570369710_4" function="internal">
        <lane id=":3570369710_4_0" index="0" disallow="tram rail_urban rail rail_electric rail_fast ship" speed="3.13" length="2.11" shape="655.74,1540.95 656.13,1541.54 656.52,1542.10 656.67,1542.48 656.37,1542.52"/>
    </edge>
    <edge id=":3660731008_0" function="internal">
        <lane id=":3660731008_0_0" index="0" disallow="tram rail_urban rail rail_electric rail_fast ship" speed="22.22" length="1.69" shape="663.75,1535.47 662.13,1535.91"/>
        <lane id=":3660731008_0_1" index="1" disallow="tram rail_urban rail rail_electric rail_fast ship" speed="22.22" length="1.69" shape="664.60,1538.55 662.97,1539.00"/>
    </edge>
    <edge id=":3660731009_0" function="internal">
        <lane id=":3660731009_0_0" index="0" disallow="tram rail_urban rail rail_electric rail_fast ship" speed="11.11" length="8.02" shape="654.13,1532.31 658.39,1539.14"/>
        <lane id=":3660731009_0_1" index="1" disallow="tram rail_urban rail rail_electric rail_fast ship" speed="11.11" length="8.02" shape="651.42,1534.00 655.64,1540.78"/>
    </edge>
    <edge id=":3660731009_2" function="internal">
        <lane id=":3660731009_2_0" index="0" disallow="tram rail_urban rail rail_electric rail_fast ship" speed="22.22" length="7.24" shape="656.04,1537.57 663.01,1535.67"/>
        <lane id=":3660731009_2_1" index="1" disallow="tram rail_urban rail rail_electric rail_fast ship" speed="22.22" length="7.24" shape="656.85,1540.66 663.85,1538.76"/>
    </edge>
    <edge id=":3660731009_4" function="internal">
        <lane id=":3660731009_4_0" index="0" disallow="tram rail_urban rail rail_electric rail_fast ship" speed="3.30" length="1.22" shape="656.85,1540.66 655.64,1540.78"/>
    </edge>
    <edge id=":3660731010_0" function="internal">
        <lane id=":3660731010_0_0" index="0" disallow="tram rail_urban rail rail_electric rail_fast ship" speed="11.11" length="13.38" shape="683.42,1545.71 679.42,1546.10 676.68,1546.37 673.93,1546.53 669.92,1546.55"/>
        <lane id=":3660731010_0_1" index="1" disallow="tram rail_urban rail rail_electric rail_fast ship" speed="11.11" length="13.38" shape="683.13,1542.52 679.22,1542.90 676.55,1543.18 673.87,1543.33 669.94,1543.35"/>
    </edge>
    <edge id=":3660731010_2" function="internal">
        <lane id=":3660731010_2_0" index="0" disallow="tram rail_urban rail rail_electric rail_fast ship" speed="27.78" length="5.37" shape="674.03,1542.98 677.31,1547.30"/>
        <lane id=":3660731010_2_1" index="1" disallow="tram rail_urban rail rail_electric rail_fast ship" speed="27.78" length="5.37" shape="671.53,1544.97 674.74,1549.21"/>
    </edge>
    <edge id=":3660731010_4" function="internal">
        <lane id=":3660731010_4_0" index="0" disallow="tram rail_urban rail rail_electric rail_fast ship" speed="3.27" length="2.27" shape="671.53,1544.97 669.94,1543.35"/>
    </edge>
    <edge id=":3660731012_0" function="internal">
        <lane id=":3660731012_0_0" index="0" disallow="tram rail_urban rail rail_electric rail_fast ship" speed="18.05" length="18.08" shape="652.72,1550.44 649.29,1546.25 646.99,1543.34 644.83,1540.32 641.84,1535.81"/>
        <lane id=":3660731012_0_1" index="1" disallow="tram rail_urban rail rail_electric rail_fast ship" speed="18.05" length="18.08" shape="655.20,1548.42 651.83,1544.30 649.57,1541.45 647.45,1538.48 644.51,1534.06"/>
    </edge>
    <edge id=":3660731012_2" function="internal">
        <lane id=":3660731012_2_0" index="0" disallow="tram rail_urban rail rail_electric rail_fast ship" speed="6.05" length="10.17" shape="655.20,1548.42 653.44,1545.68 653.10,1543.48 654.17,1541.83 656.66,1540.71"/>
    </edge>
    <edge id=":3660731012_3" function="internal">
        <lane id=":3660731012_3_0" index="0" disallow="tram rail_urban rail rail_electric rail_fast ship" speed="14.99" length="16.13" shape="655.45,1545.59 650.59,1544.02 647.36,1542.41 644.77,1539.95 641.84,1535.81"/>
        <lane id=":3660731012_3_1" index="1" disallow="tram rail_urban rail rail_electric rail_fast ship" speed="13.90" length="16.13" shape="656.18,1542.46 652.01,1541.11 649.24,1539.73 647.03,1537.61 644.51,1534.06"/>
    </edge>
    <edge id=":3660731012_5" function="internal">
        <lane id=":3660731012_5_0" index="0" disallow="tram rail_urban rail rail_electric rail_fast ship" speed="6.05" length="8.69" shape="640.08,1542.88 642.06,1541.64 643.01,1540.05 642.94,1538.11 641.84,1535.81"/>
    </edge>
    <edge id=":3660731012_6" function="internal">
        <lane id=":3660731012_6_0" index="0" disallow="tram rail_urban rail rail_electric rail_fast ship" speed="22.22" length="16.42" shape="640.08,1542.88 644.64,1540.98 647.81,1539.82 651.06,1538.88 655.84,1537.62"/>
        <lane id=":3660731012_6_1" index="1" disallow="tram rail_urban rail rail_electric rail_fast ship" speed="22.22" length="16.42" shape="641.33,1545.83 645.76,1543.98 648.85,1542.86 652.01,1541.94 656.66,1540.71"/>
    </edge>
    <edge id=":3660731013_0" function="internal">
        <lane id=":3660731013_0_0" index="0" disallow="tram rail_urban rail rail_electric rail_fast ship" speed="8.42" length="11.33" shape="665.38,1567.37 663.18,1565.14 660.79,1563.80 658.19,1563.35 655.39,1563.78"/>
    </edge>
    <edge id=":3660731013_1" function="internal">
        <lane id=":3660731013_1_0" index="0" disallow="tram rail_urban rail rail_electric rail_fast ship" speed="13.89" length="16.62" shape="665.38,1567.37 655.45,1553.92"/>
        <lane id=":3660731013_1_1" index="1" disallow="tram rail_urban rail rail_electric rail_fast ship" speed="13.89" length="16.62" shape="667.89,1565.39 658.07,1552.09"/>
    </edge>
    <edge id=":3660731013_3" function="internal">
        <lane id=":3660731013_3_0" index="0" disallow="tram rail_urban rail rail_electric rail_fast ship" speed="18.05" length="14.26" shape="669.07,1560.28 655.39,1563.78"/>
        <lane id=":3660731013_3_1" index="1" disallow="tram rail_urban rail rail_electric rail_fast ship" speed="18.05" length="14.26" shape="668.41,1557.14 654.47,1560.72"/>
    </edge>
    <edge id=":3660731013_5" function="internal">
        <lane id=":3660731013_5_0" index="0" disallow="tram rail_urban rail rail_electric rail_fast ship" speed="9.51" length="16.27" shape="663.13,1550.91 662.75,1555.63 661.33,1559.35 658.88,1562.07 655.39,1563.78"/>
        <lane id=":3660731013_5_1" index="1" disallow="tram rail_urban rail rail_electric rail_fast ship" speed="8.21" length="11.93" shape="659.93,1551.14 659.67,1554.69 658.67,1557.47 656.94,1559.48 654.47,1560.72"/>
    </edge>
    <edge id=":3660731016_0" function="internal">
        <lane id=":3660731016_0_0" index="0" disallow="tram rail_urban rail rail_electric rail_fast ship" speed="7.74" length="9.76" shape="677.37,1564.39 675.67,1562.18 673.75,1560.75 671.62,1560.10 669.27,1560.23"/>